Circuit: * C:\Users\JakeBooth\Desktop\Photospectrometer Git's\PhotoSpectrometer-Electrical\V2\LTSPICE\LM358\Draft1.asc

Direct Newton iteration for .op point succeeded.

Date: Fri Jul 27 12:57:39 2018
Total elapsed time: 0.069 seconds.

tnom = 27
temp = 27
method = modified trap
totiter = 2511
traniter = 2493
tranpoints = 1198
accept = 1144
rejected = 54
matrix size = 38
fillins = 18
solver = Normal
Matrix Compiler1: 1.96 KB object code size  0.5/0.4/[0.2]
Matrix Compiler2: off  [0.2]/0.4/0.3

