Circuit: * C:\Users\JakeBooth\Desktop\Photospectrometer Git's\PhotoSpectrometer-Electrical\V2\Eagle\LTSpice\amp_test.asc

Direct Newton iteration failed to find .op point.  (Use ".option noopiter" to skip.)
Starting Gmin stepping
Gmin = 10
Gmin = 1.07374
Gmin = 0.115292
Gmin = 0.0123794
Gmin = 0.00132923
Gmin = 0.000142725
Gmin = 1.5325e-005
Gmin = 1.6455e-006
Gmin = 1.76685e-007
Gmin = 1.89714e-008
Gmin = 2.03704e-009
vernier = 0.5
vernier = 0.25
vernier = 0.125
vernier = 0.0625
Gmin = 1.36335e-009
vernier = 0.03125
vernier = 0.015625
vernier = 0.0078125
vernier = 0.00390625
vernier = 0.00195313
vernier = 0.000976563
vernier = 0.000488281
Gmin = 0
Gmin stepping failed

Starting source stepping with srcstepmethod=0
Source Step = 3.0303%
Source Step = 33.3333%
Source Step = 49.2424%
Source Step = 56.8182%
Source Step = 64.3939%
Source Step = 71.9697%
Source Step = 79.5455%
vernier = 0.375
Source Step = 88.6364%
Source Step = 100%
Source stepping succeeded in finding the operating point.

Heightened Def Con from 0.00137216 to 0.00137216

Date: Sat Oct 20 16:34:12 2018
Total elapsed time: 11.914 seconds.

tnom = 27
temp = 27
method = modified trap
totiter = 79998
traniter = 76754
tranpoints = 18120
accept = 13193
rejected = 4928
matrix size = 378
fillins = 773
solver = Normal
Thread vector: 58.9/45.1[4] 24.5/14.0[4] 4.6/5.1[1] 5.0/31.6[1]  2592/500
Matrix Compiler1: 54.36 KB object code size  38.8/22.4/[7.7]
Matrix Compiler2: 41.94 KB object code size  17.5/27.0/[6.5]

