Circuit: * C:\Users\JakeBooth\Desktop\Photospectrometer Git's\PhotoSpectrometer-Electrical\V2\Eagle\LTSpice\amp_test.asc

Direct Newton iteration for .op point succeeded.

Date: Mon Sep 03 17:56:35 2018
Total elapsed time: 0.174 seconds.

tnom = 27
temp = 27
method = modified trap
totiter = 2100
traniter = 2082
tranpoints = 1042
accept = 1042
rejected = 0
matrix size = 10
fillins = 1
solver = Normal
Matrix Compiler1: 454 bytes object code size  0.1/0.1/[0.0]
Matrix Compiler2: 844 bytes object code size  0.1/0.2/[0.1]

