Circuit: * C:\Users\JakeBooth\Desktop\Photospectrometer Git's\PhotoSpectrometer-Electrical\V2\Eagle\LTSpice\CurrentSense.asc

Direct Newton iteration for .op point succeeded.

Date: Fri Jul 27 21:58:49 2018
Total elapsed time: 0.088 seconds.

tnom = 27
temp = 27
method = modified trap
totiter = 2099
traniter = 2088
tranpoints = 1045
accept = 1045
rejected = 0
matrix size = 40
fillins = 20
solver = Normal
Matrix Compiler1: 2.19 KB object code size  0.5/0.3/[0.2]
Matrix Compiler2: 3.07 KB object code size  0.3/0.4/[0.2]

