Circuit: * C:\Users\JakeBooth\Desktop\Photospectrometer Git's\PhotoSpectrometer-Electrical\V2\Eagle\LTSpice\Draft2.asc

Limiting rise time of source v1 to 0.005
Limiting fall time of source v1 to 0.005
Direct Newton iteration for .op point succeeded.

Date: Thu Aug 16 13:07:05 2018
Total elapsed time: 0.146 seconds.

tnom = 27
temp = 27
method = modified trap
totiter = 5681
traniter = 5658
tranpoints = 1946
accept = 1669
rejected = 277
matrix size = 13
fillins = 2
solver = Normal
Matrix Compiler1: 594 bytes object code size  0.2/0.1/[0.0]
Matrix Compiler2: off  [0.1]/0.2/0.2

