Circuit: * C:\Users\JakeBooth\Desktop\Photospectrometer Git's\PhotoSpectrometer-Electrical\V2\Eagle\LTSpice\Pelt_Driver.asc

Limiting rise time of source v2 to 5e-006
Limiting fall time of source v2 to 5e-006
Direct Newton iteration for .op point succeeded.

Date: Mon Sep 03 15:22:32 2018
Total elapsed time: 0.473 seconds.

tnom = 27
temp = 27
method = modified trap
totiter = 113963
traniter = 113957
tranpoints = 29153
accept = 21132
rejected = 8021
matrix size = 10
fillins = 0
solver = Normal
Matrix Compiler1: 516 bytes object code size  0.3/0.1/[0.0]
Matrix Compiler2: off  [0.1]/0.1/0.1

