Circuit: * C:\Users\JakeBooth\Desktop\Photospectrometer Git's\PhotoSpectrometer-Electrical\V2\Eagle\LTSpice\Pelt_Driver.asc

Limiting rise time of source v2 to 5e-006
Limiting fall time of source v2 to 5e-006
Direct Newton iteration for .op point succeeded.

Date: Fri Jul 27 23:03:47 2018
Total elapsed time: 0.288 seconds.

tnom = 27
temp = 27
method = modified trap
totiter = 72638
traniter = 72632
tranpoints = 18847
accept = 14484
rejected = 4363
matrix size = 10
fillins = 0
solver = Normal
Matrix Compiler1: 516 bytes object code size  0.1/0.1/[0.1]
Matrix Compiler2:      60 opcodes  0.1/[0.1]/0.2

